REMARK  Name = 
REMARK  3 active torsions:
REMARK  status: ('A' for Active; 'I' for Inactive)
REMARK    1  A    between atoms: C_1  and  C_2
REMARK    2  A    between atoms: C_8  and  C_9
REMARK    3  A    between atoms: C_14  and  C_15
REMARK                            x       y       z     vdW  Elec       q    Type
REMARK                         _______ _______ _______ _____ _____    ______ ____
ROOT
ATOM      1  C   UNL     1      -0.546   1.452   0.614  0.00  0.00    +0.000 A 
ATOM      2  N   UNL     1      -0.927   2.574   1.250  0.00  0.00    +0.000 NA
ATOM      3  N   UNL     1      -0.040   3.543   1.100  0.00  0.00    +0.000 NA
ATOM      4  C   UNL     1       0.941   2.990   0.331  0.00  0.00    +0.000 A 
ATOM      5  N   UNL     1       0.636   1.721   0.034  0.00  0.00    +0.000 N 
ATOM      6  C   UNL     1       1.671   1.155  -0.773  0.00  0.00    +0.000 C 
ATOM      7  C   UNL     1       2.525   2.304  -1.229  0.00  0.00    +0.000 C 
ATOM      8  C   UNL     1       2.233   3.397  -0.259  0.00  0.00    +0.000 C 
ENDROOT
BRANCH   1  16
ATOM      9  C   UNL     1      -5.301  -0.390  -1.639  0.00  0.00    +0.000 C 
ATOM     10  C   UNL     1      -4.458  -1.257  -0.777  0.00  0.00    +0.000 A 
ATOM     11  N   UNL     1      -4.757  -2.534  -0.469  0.00  0.00    +0.000 NA
ATOM     12  N   UNL     1      -3.828  -3.057   0.314  0.00  0.00    +0.000 N 
ATOM     13  C   UNL     1      -2.890  -2.100   0.528  0.00  0.00    +0.000 A 
ATOM     14  C   UNL     1      -1.701  -2.082   1.263  0.00  0.00    +0.000 A 
ATOM     15  C   UNL     1      -0.954  -0.920   1.279  0.00  0.00    +0.000 A 
ATOM     16  C   UNL     1      -1.327   0.219   0.604  0.00  0.00    +0.000 A 
ATOM     17  C   UNL     1      -2.513   0.206  -0.131  0.00  0.00    +0.000 A 
ATOM     18  C   UNL     1      -3.258  -0.956  -0.145  0.00  0.00    +0.000 A 
ATOM     19  H   UNL     1      -3.820  -4.020   0.692  0.00  0.00    +0.000 HD
ENDBRANCH   1  16
BRANCH   6  20
ATOM     20  C   UNL     1       2.492   0.161  -0.082  0.00  0.00    +0.000 A 
ATOM     21  C   UNL     1       2.104  -1.176  -0.189  0.00  0.00    +0.000 A 
ATOM     22  C   UNL     1       2.806  -2.194   0.424  0.00  0.00    +0.000 A 
ATOM     23  C   UNL     1       3.944  -1.909   1.182  0.00  0.00    +0.000 A 
ATOM     24 CL   UNL     1       4.838  -3.198   1.962  0.00  0.00    +0.000 Cl
ATOM     25  C   UNL     1       4.343  -0.589   1.300  0.00  0.00    +0.000 A 
ATOM     26  C   UNL     1       3.611   0.409   0.667  0.00  0.00    +0.000 A 
ENDBRANCH   6  20
TORSDOF 2
