
     RDKit          3D

 41 45  0  0  0  0  0  0  0  0999 V2000
   -5.3006   -0.3897   -1.6395 C   0  0  0  0  0  0  0  0  0  0  0  0
   -4.4577   -1.2574   -0.7771 C   0  0  0  0  0  0  0  0  0  0  0  0
   -4.7573   -2.5342   -0.4690 N   0  0  0  0  0  0  0  0  0  0  0  0
   -3.8277   -3.0574    0.3139 N   0  0  0  0  0  0  0  0  0  0  0  0
   -2.8901   -2.1003    0.5280 C   0  0  0  0  0  0  0  0  0  0  0  0
   -1.7010   -2.0822    1.2631 C   0  0  0  0  0  0  0  0  0  0  0  0
   -0.9535   -0.9197    1.2790 C   0  0  0  0  0  0  0  0  0  0  0  0
   -1.3275    0.2192    0.6040 C   0  0  0  0  0  0  0  0  0  0  0  0
   -0.5465    1.4519    0.6136 C   0  0  0  0  0  0  0  0  0  0  0  0
   -0.9273    2.5742    1.2498 N   0  0  0  0  0  0  0  0  0  0  0  0
   -0.0402    3.5427    1.1001 N   0  0  0  0  0  0  0  0  0  0  0  0
    0.9406    2.9897    0.3309 C   0  0  0  0  0  0  0  0  0  0  0  0
    0.6363    1.7210    0.0339 N   0  0  0  0  0  0  0  0  0  0  0  0
    1.6712    1.1548   -0.7731 C   0  0  2  0  0  0  0  0  0  0  0  0
    2.4916    0.1608   -0.0821 C   0  0  0  0  0  0  0  0  0  0  0  0
    2.1041   -1.1758   -0.1891 C   0  0  0  0  0  0  0  0  0  0  0  0
    2.8063   -2.1939    0.4244 C   0  0  0  0  0  0  0  0  0  0  0  0
    3.9439   -1.9095    1.1823 C   0  0  0  0  0  0  0  0  0  0  0  0
    4.8375   -3.1984    1.9621 Cl  0  0  0  0  0  0  0  0  0  0  0  0
    4.3431   -0.5894    1.2996 C   0  0  0  0  0  0  0  0  0  0  0  0
    3.6106    0.4089    0.6675 C   0  0  0  0  0  0  0  0  0  0  0  0
    2.5251    2.3036   -1.2288 C   0  0  0  0  0  0  0  0  0  0  0  0
    2.2331    3.3969   -0.2586 C   0  0  0  0  0  0  0  0  0  0  0  0
   -2.5134    0.2062   -0.1310 C   0  0  0  0  0  0  0  0  0  0  0  0
   -3.2583   -0.9555   -0.1455 C   0  0  0  0  0  0  0  0  0  0  0  0
   -6.3712   -0.4925   -1.3230 H   0  0  0  0  0  0  0  0  0  0  0  0
   -5.2643   -0.6959   -2.7033 H   0  0  0  0  0  0  0  0  0  0  0  0
   -5.0329    0.6895   -1.5092 H   0  0  0  0  0  0  0  0  0  0  0  0
   -3.8199   -4.0204    0.6921 H   0  0  0  0  0  0  0  0  0  0  0  0
   -1.3686   -2.9550    1.8089 H   0  0  0  0  0  0  0  0  0  0  0  0
   -0.0391   -0.8905    1.8383 H   0  0  0  0  0  0  0  0  0  0  0  0
    1.1719    0.6760   -1.6756 H   0  0  0  0  0  0  0  0  0  0  0  0
    1.2320   -1.4751   -0.7602 H   0  0  0  0  0  0  0  0  0  0  0  0
    2.4927   -3.2292    0.3321 H   0  0  0  0  0  0  0  0  0  0  0  0
    5.2271   -0.3713    1.8890 H   0  0  0  0  0  0  0  0  0  0  0  0
    3.9598    1.4075    0.7903 H   0  0  0  0  0  0  0  0  0  0  0  0
    2.3099    2.5908   -2.2854 H   0  0  0  0  0  0  0  0  0  0  0  0
    3.5912    2.0111   -1.1035 H   0  0  0  0  0  0  0  0  0  0  0  0
    3.0048    3.5603    0.5216 H   0  0  0  0  0  0  0  0  0  0  0  0
    2.0877    4.3347   -0.8713 H   0  0  0  0  0  0  0  0  0  0  0  0
   -2.8236    1.0937   -0.6687 H   0  0  0  0  0  0  0  0  0  0  0  0
  1  2  1  0
  2  3  2  0
  3  4  1  0
  4  5  1  0
  5  6  2  0
  6  7  1  0
  7  8  2  0
  8  9  1  0
  9 10  2  0
 10 11  1  0
 11 12  2  0
 12 13  1  0
 13 14  1  0
 14 15  1  0
 15 16  2  0
 16 17  1  0
 17 18  2  0
 18 19  1  0
 18 20  1  0
 20 21  2  0
 14 22  1  0
 22 23  1  0
  8 24  1  0
 24 25  2  0
 25  2  1  0
 25  5  1  0
 13  9  1  0
 21 15  1  0
 23 12  1  0
  1 26  1  0
  1 27  1  0
  1 28  1  0
  4 29  1  0
  6 30  1  0
  7 31  1  0
 14 32  1  6
 16 33  1  0
 17 34  1  0
 20 35  1  0
 21 36  1  0
 22 37  1  0
 22 38  1  0
 23 39  1  0
 23 40  1  0
 24 41  1  0
M  END
